casefile/dc2ac_output/solved_Vadju/WECC240_v03_Mod_NewMVA_month_12_day_8_hour_19_step4_unlimQ.raw
@!IC, SBASE,REV,XFRRAT,NXFRAT,BASFRQ
0,   100.00, 34,     0,     1, 60.00     / PSS(R)E-34.8    MON, MAR 21 2022  15:58
WECC 240 SYSTEM, V0.2,  MODIFIED BY NREL, INTERNAL USE ONLY
CONTACT: HAOYU.YUAN@NREL.GOV
GENERAL, THRSHZ=0.0001, PQBRAK=0.7, BLOWUP=5.0
GAUSS, ITMX=100, ACCP=1.6, ACCQ=1.6, ACCM=1.0, TOL=0.0001
NEWTON, ITMXN=300, ACCN=1.0, TOLN=0.1, VCTOLQ=0.1, VCTOLV=0.00001, DVLIM=0.99, NDVFCT=0.99
ADJUST, ADJTHR=0.005, ACCTAP=1.0, TAPLIM=0.05, SWVBND=100.0, MXTPSS=99, MXSWIM=10
TYSL, ITMXTY=20, ACCTY=1.0, TOLTY=0.00001
SOLVER, FNSL, ACTAPS=0, AREAIN=0, PHSHFT=0, DCTAPS=1, SWSHNT=1, FLATST=0, VARLIM=0, NONDIV=0
RATING, 1, "RATE1 ", "RATING SET 1                    "
RATING, 2, "RATE2 ", "RATING SET 2                    "
RATING, 3, "RATE3 ", "RATING SET 3                    "
RATING, 4, "RATE4 ", "RATING SET 4                    "
RATING, 5, "RATE5 ", "RATING SET 5                    "
RATING, 6, "RATE6 ", "RATING SET 6                    "
RATING, 7, "RATE7 ", "RATING SET 7                    "
RATING, 8, "RATE8 ", "RATING SET 8                    "
RATING, 9, "RATE9 ", "RATING SET 9                    "
RATING,10, "RATE10", "RATING SET 10                   "
RATING,11, "RATE11", "RATING SET 11                   "
RATING,12, "RATE12", "RATING SET 12                   "
0 / END OF SYSTEM-WIDE DATA, BEGIN BUS DATA
@!   I,'NAME        ', BASKV, IDE,AREA,ZONE,OWNER, VM,        VA,    NVHI,   NVLO,   EVHI,   EVLO
  1001,'FOURCORN    ', 500.0000,1,   1,   3,   1,1.02330,  12.8358,1.10000,0.90000,1.10000,0.90000
  1002,'FOURCORN    ', 345.0000,1,   1,   3,   1,1.01400,  16.9499,1.10000,0.90000,1.10000,0.90000
  1003,'FOURCORN    ', 230.0000,1,   1,  10,   1,1.02326,  12.3459,1.10000,0.90000,1.10000,0.90000
  1004,'SAN JUAN    ', 345.0000,1,   1,  10,   1,1.03000,  23.4491,1.10000,0.90000,1.10000,0.90000
  1032,'FCNGN4CC    ',  20.0000,2,   1,  10,   1,1.01276,  17.2658,1.10000,0.90000,1.10000,0.90000
  1034,'SJUAN G4    ',  20.0000,2,   1,  10,   1,1.03122,  24.0018,1.10000,0.90000,1.10000,0.90000
  1101,'CORONADO    ', 500.0000,1,   1,   3,   1,1.01000,   7.6174,1.10000,0.90000,1.10000,0.90000
  1102,'CHOLLA      ', 345.0000,1,   1,   3,   1,1.01622,  11.3127,1.10000,0.90000,1.10000,0.90000
  1131,'CORONADO    ',  20.0000,2,   1,   3,   1,1.01008,   9.1321,1.10000,0.90000,1.10000,0.90000
  1201,'MOENKOPI    ', 500.0000,1,   1,   3,   1,1.05178,  -5.8860,1.10000,0.90000,1.10000,0.90000
  1202,'NAVAJO      ', 500.0000,1,   1,   3,   1,1.07854,  -0.7229,1.10000,0.90000,1.10000,0.90000
  1232,'NAVAJO 2    ',  20.0000,3,   1,   3,   1,1.08000,   0.0000,1.10000,0.90000,1.10000,0.90000
  1301,'MEAD        ', 500.0000,1,   1,   3,   1,1.04500,  -5.6587,1.10000,0.90000,1.10000,0.90000
  1302,'H ALLEN     ', 500.0000,1,   1,   9,   1,1.03402,  -0.0184,1.10000,0.90000,1.10000,0.90000
  1303,'H ALLEN     ', 345.0000,1,   1,   9,   1,1.00500,   2.1081,1.10000,0.90000,1.10000,0.90000
  1331,'HOOVER      ',  20.0000,2,   1,   3,   1,1.04736,  -4.5408,1.10000,0.90000,1.10000,0.90000
  1333,'H ALLEN     ',  20.0000,2,   1,   9,   1,1.00155,   3.0836,1.10000,0.90000,1.10000,0.90000
  1401,'PALOVRDE    ', 500.0000,1,   1,   3,   1,1.03500, -15.3571,1.10000,0.90000,1.10000,0.90000
  1402,'WESTWING    ', 500.0000,1,   1,   3,   1,1.03816, -15.5793,1.10000,0.90000,1.10000,0.90000
  1403,'PARKER      ', 230.0000,1,   1,   3,   1,1.03113, -18.4416,1.10000,0.90000,1.10000,0.90000
  1431,'PALOVRD2    ',  20.0000,2,   1,   3,   1,1.04137, -14.5421,1.10000,0.90000,1.10000,0.90000
  2000,'MEXICO      ', 230.0000,1,   4,   7,   1,1.00000, -36.4079,1.10000,0.90000,1.10000,0.90000
  2030,'MEXICO      ',  20.0000,2,   4,   7,   1,1.00245, -35.7493,1.10000,0.90000,1.10000,0.90000
  2100,'IMPERIAL    ', 230.0000,1,   2,   2,   1,1.02464, -34.4481,1.10000,0.90000,1.10000,0.90000
  2130,'IMPERIAL    ',  20.0000,2,   2,   2,   1,1.02762, -34.2221,1.10000,0.90000,1.10000,0.90000
  2201,'MIGUEL      ', 500.0000,1,   2,   2,   1,0.85619, -67.8596,1.10000,0.90000,1.10000,0.90000
  2202,'MIGUEL      ', 230.0000,1,   2,   2,   1,0.86364, -70.6588,1.10000,0.90000,1.10000,0.90000
  2203,'MISSION     ', 230.0000,1,   2,   2,   1,0.86828, -79.9562,1.10000,0.90000,1.10000,0.90000
  2233,'MISSION     ',  20.0000,2,   2,   2,   1,0.86828, -79.9562,1.10000,0.90000,1.10000,0.90000
  2301,'IMPRLVLY    ', 500.0000,1,   2,   2,   1,0.90780, -39.4391,1.10000,0.90000,1.10000,0.90000
  2302,'IMPRLVLY    ', 230.0000,1,   2,   2,   1,0.91531, -39.0851,1.10000,0.90000,1.10000,0.90000
  2332,'IMPRLVLY    ',  20.0000,2,   2,   2,   1,0.91531, -39.0851,1.10000,0.90000,1.10000,0.90000
  2400,'DEVERS      ', 500.0000,1,   2,   2,   1,0.96792, -40.4115,1.10000,0.90000,1.10000,0.90000
  2401,'LUGO        ', 500.0000,1,   2,   2,   1,0.95517, -39.6370,1.10000,0.90000,1.10000,0.90000
  2402,'MIRALOMA    ', 500.0000,1,   2,   2,   1,0.92888, -49.1362,1.10000,0.90000,1.10000,0.90000
  2403,'VALLEY      ', 500.0000,1,   2,   2,   1,0.94196, -48.7258,1.10000,0.90000,1.10000,0.90000
  2404,'VINCENT     ', 500.0000,2,   2,   2,   1,1.00000, -33.4279,1.10000,0.90000,1.10000,0.90000
  2405,'SYLMAR S    ', 230.0000,1,   2,   2,   1,0.99194, -42.3415,1.10000,0.90000,1.10000,0.90000
  2406,'EAGLROCK    ', 230.0000,1,   2,   2,   1,0.98605, -51.5869,1.10000,0.90000,1.10000,0.90000
  2407,'LITEHIPE    ', 230.0000,1,   2,   2,   1,0.96852, -64.8671,1.10000,0.90000,1.10000,0.90000
  2408,'MESA CAL    ', 230.0000,1,   2,   2,   1,1.00900, -53.6141,1.10000,0.90000,1.10000,0.90000
  2409,'MIRALOMA    ', 230.0000,1,   2,   2,   1,0.92518, -55.7122,1.10000,0.90000,1.10000,0.90000
  2410,'PARDEE      ', 230.0000,1,   2,   2,   1,0.99038, -45.1558,1.10000,0.90000,1.10000,0.90000
  2411,'VINCENT     ', 230.0000,1,   2,   2,   1,0.99757, -38.3505,1.10000,0.90000,1.10000,0.90000
  2431,'LUGO        ',  20.0000,2,   2,   2,   1,0.95517, -39.6370,1.10000,0.90000,1.10000,0.90000
  2434,'VINCENT     ',  20.0000,2,   2,   2,   1,0.99757, -38.3505,1.10000,0.90000,1.10000,0.90000
  2438,'MESA CAL    ',  20.0000,2,   2,   2,   1,1.01523, -52.9171,1.10000,0.90000,1.10000,0.90000
  2439,'MIRALOMA    ',  20.0000,2,   2,   2,   1,0.92518, -55.7122,1.10000,0.90000,1.10000,0.90000
  2501,'SERRANO     ', 500.0000,1,   2,   2,   1,0.92273, -52.3408,1.10000,0.90000,1.10000,0.90000
  2502,'SERRANO     ', 230.0000,1,   2,   2,   1,0.91961, -55.8994,1.10000,0.90000,1.10000,0.90000
  2503,'S.ONOFRE    ', 230.0000,1,   2,   2,   1,0.87617, -71.2317,1.10000,0.90000,1.10000,0.90000
  2533,'S.ONOFRE    ',  20.0000,2,   2,   2,   1,0.87617, -71.2317,1.10000,0.90000,1.10000,0.90000
  2600,'ADELANTO    ', 500.0000,1,   2,   2,   1,0.96955, -32.6292,1.10000,0.90000,1.10000,0.90000
  2601,'RINALDI     ', 500.0000,1,   2,   2,   1,0.98327, -36.1684,1.10000,0.90000,1.10000,0.90000
  2602,'STA E       ', 500.0000,1,   2,   2,   1,0.98678, -38.1468,1.10000,0.90000,1.10000,0.90000
  2603,'VICTORVL    ', 500.0000,1,   2,   2,   1,0.96704, -32.8889,1.10000,0.90000,1.10000,0.90000
  2604,'INTERMT     ', 345.0000,1,   2,   2,   1,1.03000,  44.7838,1.10000,0.90000,1.10000,0.90000
  2605,'STA B1      ', 287.0000,1,   2,   2,   1,0.98452, -36.9491,1.10000,0.90000,1.10000,0.90000
  2606,'STA B2      ', 287.0000,1,   2,   2,   1,0.98452, -36.9491,1.10000,0.90000,1.10000,0.90000
  2607,'VICTORVL    ', 287.0000,1,   2,   2,   1,0.98025, -34.3923,1.10000,0.90000,1.10000,0.90000
  2608,'CASTAIC     ', 230.0000,1,   2,   2,   1,1.00606, -39.7647,1.10000,0.90000,1.10000,0.90000
  2609,'GLENDAL     ', 230.0000,1,   2,   2,   1,0.99282, -38.7624,1.10000,0.90000,1.10000,0.90000
  2610,'HAYNES      ', 230.0000,1,   2,   2,   1,1.00400, -25.3212,1.10000,0.90000,1.10000,0.90000
  2611,'OLIVE       ', 230.0000,1,   2,   2,   1,0.99451, -41.1427,1.10000,0.90000,1.10000,0.90000
  2612,'RINALDI     ', 230.0000,1,   2,   2,   1,0.99257, -41.0362,1.10000,0.90000,1.10000,0.90000
  2613,'RIVER       ', 230.0000,1,   2,   2,   1,0.99251, -35.6101,1.10000,0.90000,1.10000,0.90000
  2614,'STA BLD     ', 230.0000,1,   2,   2,   1,0.98822, -36.7747,1.10000,0.90000,1.10000,0.90000
  2615,'STA E       ', 230.0000,1,   2,   2,   1,0.99280, -39.8995,1.10000,0.90000,1.10000,0.90000
  2616,'STA F       ', 230.0000,1,   2,   2,   1,0.99115, -35.8179,1.10000,0.90000,1.10000,0.90000
  2617,'STA G       ', 230.0000,1,   2,   2,   1,0.99205, -37.4291,1.10000,0.90000,1.10000,0.90000
  2618,'STA J       ', 230.0000,1,   2,   2,   1,0.98954, -42.3278,1.10000,0.90000,1.10000,0.90000
  2619,'SYLMARLA    ', 230.0000,1,   2,   2,   1,0.99238, -40.9384,1.10000,0.90000,1.10000,0.90000
  2620,'VALLEY      ', 230.0000,1,   2,   2,   1,0.99232, -41.1117,1.10000,0.90000,1.10000,0.90000
  2621,'STA B       ', 138.0000,1,   2,   2,   1,0.98361, -37.4119,1.10000,0.90000,1.10000,0.90000
  2630,'HAYNES3G    ',  20.0000,2,   2,   2,   1,1.00488, -24.6942,1.10000,0.90000,1.10000,0.90000
  2631,'OLIVE       ',  20.0000,2,   2,   2,   1,0.99451, -41.1427,1.10000,0.90000,1.10000,0.90000
  2634,'INTERM1G    ',  20.0000,2,   2,   2,   1,1.02902,  45.2212,1.10000,0.90000,1.10000,0.90000
  2637,'OWENS G     ',  20.0000,2,   2,   2,   1,0.99274, -41.0109,1.10000,0.90000,1.10000,0.90000
  2638,'CASTAI4G    ',  20.0000,2,   2,   2,   1,1.00655, -39.6496,1.10000,0.90000,1.10000,0.90000
  2901,'ELDORADO    ', 500.0000,1,   2,   2,   1,0.99231, -22.1655,1.10000,0.90000,1.10000,0.90000
  2902,'MOHAVE      ', 500.0000,1,   2,   2,   1,0.99752, -27.5553,1.10000,0.90000,1.10000,0.90000
  3101,'EMBRCDRD    ', 230.0000,1,   2,   2,   1,1.01180,  -7.3419,1.10000,0.90000,1.10000,0.90000
  3102,'MARTIN      ', 230.0000,1,   2,   2,   1,1.01020,  -6.1160,1.10000,0.90000,1.10000,0.90000
  3103,'SANMATEO    ', 230.0000,1,   2,   2,   1,1.01026,  -3.8602,1.10000,0.90000,1.10000,0.90000
  3104,'MARTIN      ', 115.0000,1,   2,   2,   1,1.00858, -10.1495,1.10000,0.90000,1.10000,0.90000
  3105,'POTRERO     ', 115.0000,1,   2,   2,   1,1.00000,  -8.9772,1.10000,0.90000,1.10000,0.90000
  3133,'SANMATEO    ',  20.0000,2,   2,   2,   1,1.01026,  -3.8602,1.10000,0.90000,1.10000,0.90000
  3135,'POTRERO     ',  20.0000,2,   2,   2,   1,0.99954,  -8.8910,1.10000,0.90000,1.10000,0.90000
  3201,'C.COSTA     ', 230.0000,1,   2,   2,   1,1.01461,  -0.6501,1.10000,0.90000,1.10000,0.90000
  3202,'MORAGA      ', 230.0000,1,   2,   2,   1,1.01316,  -1.0588,1.10000,0.90000,1.10000,0.90000
  3203,'NEWARK      ', 230.0000,1,   2,   2,   1,1.01243,  -1.9075,1.10000,0.90000,1.10000,0.90000
  3204,'PITSBURG    ', 230.0000,1,   2,   2,   1,1.01000,   0.5088,1.10000,0.90000,1.10000,0.90000
  3205,'SOBRANTE    ', 230.0000,1,   2,   2,   1,1.00774,   0.4467,1.10000,0.90000,1.10000,0.90000
  3234,'PITSBURG    ',  20.0000,2,   2,   2,   1,1.00881,   1.0960,1.10000,0.90000,1.10000,0.90000
  3301,'METCALF     ', 500.0000,1,   2,   2,   1,0.99698,  -3.4920,1.10000,0.90000,1.10000,0.90000
  3302,'JEFFERSN    ', 230.0000,1,   2,   2,   1,1.01015,  -7.5714,1.10000,0.90000,1.10000,0.90000
  3303,'METCALF     ', 230.0000,1,   2,   2,   1,1.00000,  -5.2144,1.10000,0.90000,1.10000,0.90000
  3304,'MONTAVIS    ', 230.0000,1,   2,   2,   1,1.00610,  -6.9792,1.10000,0.90000,1.10000,0.90000
  3305,'RAVENSWD    ', 230.0000,1,   2,   2,   1,1.01214,  -3.2705,1.10000,0.90000,1.10000,0.90000
  3333,'METCALF     ',  20.0000,2,   2,   2,   1,0.99802,  -4.9624,1.10000,0.90000,1.10000,0.90000
  3401,'GREGG       ', 230.0000,1,   2,   2,   1,1.00375, -20.5088,1.10000,0.90000,1.10000,0.90000
  3402,'HELMS PP    ', 230.0000,1,   2,   2,   1,1.00000, -20.4562,1.10000,0.90000,1.10000,0.90000
  3403,'MC CALL     ', 230.0000,1,   2,   2,   1,1.01176, -25.0025,1.10000,0.90000,1.10000,0.90000
  3404,'PANOCHE     ', 230.0000,1,   2,   2,   1,1.00575, -20.9917,1.10000,0.90000,1.10000,0.90000
  3405,'WILSON      ', 230.0000,1,   2,   2,   1,0.99193, -15.5445,1.10000,0.90000,1.10000,0.90000
  3432,'HELMS PP    ',  20.0000,2,   2,   2,   1,0.99979, -20.4552,1.10000,0.90000,1.10000,0.90000
  3433,'MC CALL     ',  20.0000,2,   2,   2,   1,1.01176, -25.0025,1.10000,0.90000,1.10000,0.90000
  3501,'FULTON      ', 230.0000,1,   2,   2,   1,1.00000,  19.1064,1.10000,0.90000,1.10000,0.90000
  3531,'FULTON      ',  20.0000,2,   2,   2,   1,0.99971,  19.6705,1.10000,0.90000,1.10000,0.90000
  3601,'HUMBOLDT    ', 115.0000,1,   2,   2,   1,1.05130,  14.7803,1.10000,0.90000,1.10000,0.90000
  3631,'HUMBOLDT    ',  20.0000,2,   2,   2,   1,1.05120,  14.8009,1.10000,0.90000,1.10000,0.90000
  3701,'SUMMIT      ', 115.0000,1,   1,   9,   1,1.00931,   5.9340,1.10000,0.90000,1.10000,0.90000
  3731,'SUMMIT      ',  20.0000,2,   1,   9,   1,1.00882,   6.0024,1.10000,0.90000,1.10000,0.90000
  3801,'DIABLO      ', 500.0000,1,   2,   2,   1,1.04900, -17.7732,1.10000,0.90000,1.10000,0.90000
  3802,'GATES       ', 500.0000,1,   2,   2,   1,1.01561, -22.8281,1.10000,0.90000,1.10000,0.90000
  3803,'MIDWAY      ', 500.0000,1,   2,   2,   1,1.01422, -27.1494,1.10000,0.90000,1.10000,0.90000
  3804,'GATES       ', 230.0000,1,   2,   2,   1,1.01285, -23.5262,1.10000,0.90000,1.10000,0.90000
  3805,'MIDWAY      ', 230.0000,1,   2,   2,   1,1.02187, -28.5976,1.10000,0.90000,1.10000,0.90000
  3806,'MORROBAY    ', 230.0000,1,   2,   2,   1,1.01910, -28.0144,1.10000,0.90000,1.10000,0.90000
  3831,'DIABLO1     ',  20.0000,2,   2,   2,   1,1.05062, -17.1693,1.10000,0.90000,1.10000,0.90000
  3835,'MIDWAY      ',  20.0000,2,   2,   2,   1,1.02187, -28.5976,1.10000,0.90000,1.10000,0.90000
  3836,'MORROBAY    ',  20.0000,2,   2,   2,   1,1.01910, -28.0144,1.10000,0.90000,1.10000,0.90000
  3891,'GATES1      ', 500.0000,1,   2,   2,   1,1.02513, -34.0983,1.10000,0.90000,1.10000,0.90000
  3892,'MIDWAY1     ', 500.0000,1,   2,   2,   1,1.01655, -20.0801,1.10000,0.90000,1.10000,0.90000
  3893,'MIDWAY2     ', 500.0000,1,   2,   2,   1,1.00832, -40.5368,1.10000,0.90000,1.10000,0.90000
  3894,'MIDWAY3     ', 500.0000,1,   2,   2,   1,1.01654, -19.9621,1.10000,0.90000,1.10000,0.90000
  3895,'MIDWAY4     ', 500.0000,1,   2,   2,   1,1.00872, -40.5825,1.10000,0.90000,1.10000,0.90000
  3896,'MIDWAY5     ', 500.0000,1,   2,   2,   1,1.01814, -19.6114,1.10000,0.90000,1.10000,0.90000
  3897,'MIDWAY6     ', 500.0000,1,   2,   2,   1,1.00926, -40.2419,1.10000,0.90000,1.10000,0.90000
  3901,'LOSBANOS    ', 500.0000,1,   2,   2,   1,0.99112, -13.0170,1.10000,0.90000,1.10000,0.90000
  3902,'MOSSLAND    ', 500.0000,1,   2,   2,   1,0.99340,  -9.3739,1.10000,0.90000,1.10000,0.90000
  3903,'TESLA       ', 500.0000,1,   2,   2,   1,1.00593,   3.0777,1.10000,0.90000,1.10000,0.90000
  3904,'VACA-DIX    ', 500.0000,1,   2,   2,   1,1.00589,   4.3670,1.10000,0.90000,1.10000,0.90000
  3905,'TABLE MT    ', 500.0000,1,   2,   2,   1,1.02174,  12.2201,1.10000,0.90000,1.10000,0.90000
  3906,'ROUND MT    ', 500.0000,1,   2,   2,   1,1.06013,  18.5129,1.10000,0.90000,1.10000,0.90000
  3907,'BELLOTA     ', 230.0000,1,   2,   2,   1,0.98660,  -7.8591,1.10000,0.90000,1.10000,0.90000
  3908,'BRIGHTON    ', 230.0000,1,   2,   2,   1,0.99988,  -4.9057,1.10000,0.90000,1.10000,0.90000
  3909,'COLGATE     ', 230.0000,1,   2,   2,   1,1.02433,  -0.1803,1.10000,0.90000,1.10000,0.90000
  3910,'CORTINA     ', 230.0000,1,   2,   2,   1,1.01810,  -0.8450,1.10000,0.90000,1.10000,0.90000
  3911,'COTWDPGE    ', 230.0000,1,   2,   2,   1,1.04729,  16.7360,1.10000,0.90000,1.10000,0.90000
  3912,'GLENN       ', 230.0000,1,   2,   2,   1,1.02158,   6.7135,1.10000,0.90000,1.10000,0.90000
  3913,'GOLDHILL    ', 230.0000,1,   2,   2,   1,1.01276,   1.8203,1.10000,0.90000,1.10000,0.90000
  3914,'IGNACIO     ', 230.0000,1,   2,   2,   1,0.99587,   8.0610,1.10000,0.90000,1.10000,0.90000
  3915,'LAKEVILE    ', 230.0000,1,   2,   2,   1,0.99953,   5.5057,1.10000,0.90000,1.10000,0.90000
  3916,'LOGAN CR    ', 230.0000,1,   2,   2,   1,1.01791,   5.4161,1.10000,0.90000,1.10000,0.90000
  3917,'LOSBANOS    ', 230.0000,1,   2,   2,   1,1.00077, -17.2800,1.10000,0.90000,1.10000,0.90000
  3918,'MOSSLAND    ', 230.0000,1,   2,   2,   1,0.99781, -11.0790,1.10000,0.90000,1.10000,0.90000
  3919,'PALERMO     ', 230.0000,1,   2,   2,   1,1.02480,   1.1954,1.10000,0.90000,1.10000,0.90000
  3920,'RIO OSO     ', 230.0000,1,   2,   2,   1,1.01425,   0.8917,1.10000,0.90000,1.10000,0.90000
  3921,'ROUND MT    ', 230.0000,1,   2,   2,   1,1.07000,  25.8793,1.10000,0.90000,1.10000,0.90000
  3922,'TABLE MT    ', 230.0000,1,   2,   2,   1,1.02230,   5.1752,1.10000,0.90000,1.10000,0.90000
  3923,'TESLA       ', 230.0000,2,   2,   2,   1,1.01928,   3.5774,1.10000,0.90000,1.10000,0.90000
  3924,'VACA-DIX    ', 230.0000,1,   2,   2,   1,1.01309,   0.8736,1.10000,0.90000,1.10000,0.90000
  3925,'COTWDPGE    ', 115.0000,1,   2,   2,   1,1.05105,  15.7414,1.10000,0.90000,1.10000,0.90000
  3926,'RIO OSO     ', 115.0000,1,   2,   2,   1,1.00992,   2.4862,1.10000,0.90000,1.10000,0.90000
  3931,'ROUND MT    ',  20.0000,2,   2,   2,   1,1.07056,  26.3217,1.10000,0.90000,1.10000,0.90000
  3932,'MOSSLAND    ',  20.0000,2,   2,   2,   1,0.99340,  -9.3739,1.10000,0.90000,1.10000,0.90000
  3933,'TESLA       ',  20.0000,2,   2,   2,   1,1.02000,   4.4806,1.10000,0.90000,1.10000,0.90000
  4001,'MALIN       ', 500.0000,1,   3,  11,   1,1.08000,  21.5528,1.10000,0.90000,1.10000,0.90000
  4002,'SUMMER L    ', 500.0000,1,   3,  11,   1,1.09561,  29.1223,1.10000,0.90000,1.10000,0.90000
  4003,'BURNS       ', 500.0000,1,   3,  11,   1,1.08791,  41.9610,1.10000,0.90000,1.10000,0.90000
  4004,'GRIZZLY     ', 500.0000,1,   3,  11,   1,1.09424,  29.5325,1.10000,0.90000,1.10000,0.90000
  4005,'JOHN DAY    ', 500.0000,1,   3,  11,   1,1.08000,  37.1232,1.10000,0.90000,1.10000,0.90000
  4006,'BIG EDDY    ', 500.0000,1,   3,  11,   1,1.07911,  34.2840,1.10000,0.90000,1.10000,0.90000
  4007,'CELILOCA    ', 500.0000,1,   3,  11,   1,1.07903,  34.1621,1.10000,0.90000,1.10000,0.90000
  4008,'MALIN       ', 345.0000,1,   3,  11,   1,1.08191,  20.0650,1.10000,0.90000,1.10000,0.90000
  4009,'BIG EDDY    ', 230.0000,1,   3,  11,   1,1.08000,  32.5589,1.10000,0.90000,1.10000,0.90000
  4010,'CELILO      ', 230.0000,1,   3,  11,   1,1.07953,  32.3666,1.10000,0.90000,1.10000,0.90000
  4031,'MALIN       ',  20.0000,2,   3,  11,   1,1.08011,  21.9070,1.10000,0.90000,1.10000,0.90000
  4035,'JOHN DAY    ',  20.0000,2,   3,  11,   1,1.07720,  37.8028,1.10000,0.90000,1.10000,0.90000
  4039,'DALLES21    ',  20.0000,2,   3,  13,   1,1.07849,  33.0508,1.10000,0.90000,1.10000,0.90000
  4090,'MALIN1      ', 500.0000,1,   3,  11,   1,1.09383,  28.0212,1.10000,0.90000,1.10000,0.90000
  4091,'GRIZZLY1    ', 500.0000,1,   3,  11,   1,1.09893,  29.3497,1.10000,0.90000,1.10000,0.90000
  4092,'GRIZZLY2    ', 500.0000,1,   3,  11,   1,1.09409,  23.5194,1.10000,0.90000,1.10000,0.90000
  4093,'GRIZZLY3    ', 500.0000,1,   3,  11,   1,1.09487,  22.7418,1.10000,0.90000,1.10000,0.90000
  4094,'GRIZZLY4    ', 500.0000,1,   3,  11,   1,1.09409,  28.7048,1.10000,0.90000,1.10000,0.90000
  4095,'GRIZZLY5    ', 500.0000,1,   3,  11,   1,1.09346,  23.1792,1.10000,0.90000,1.10000,0.90000
  4096,'GRIZZLY6    ', 500.0000,1,   3,  11,   1,1.09430,  22.3573,1.10000,0.90000,1.10000,0.90000
  4097,'GRIZZLY7    ', 500.0000,1,   3,  11,   1,1.09363,  28.6606,1.10000,0.90000,1.10000,0.90000
  4101,'COULEE      ', 500.0000,1,   3,  13,   1,1.12800,  66.5980,1.10000,0.90000,1.10000,0.90000
  4102,'HANFORD     ', 500.0000,1,   3,  13,   1,1.09600,  49.3217,1.10000,0.90000,1.10000,0.90000
  4103,'BELL        ', 500.0000,1,   3,  13,   1,1.07955,  48.5449,1.10000,0.90000,1.10000,0.90000
  4104,'BELL        ', 230.0000,1,   3,  13,   1,1.07642,  35.4558,1.10000,0.90000,1.10000,0.90000
  4131,'COULEE      ',  20.0000,2,   3,  13,   1,1.13386,  69.5134,1.10000,0.90000,1.10000,0.90000
  4132,'HANFORD     ',  20.0000,2,   3,  13,   1,1.10001,  50.0534,1.10000,0.90000,1.10000,0.90000
  4201,'NORTH       ', 500.0000,1,   3,  13,   1,1.12000,  55.5097,1.10000,0.90000,1.10000,0.90000
  4202,'WCASCADE    ', 500.0000,1,   3,  13,   1,1.07978,  33.7118,1.10000,0.90000,1.10000,0.90000
  4203,'WILLAMET    ', 500.0000,1,   3,  13,   1,1.05171,  28.2573,1.10000,0.90000,1.10000,0.90000
  4204,'MERIDIAN    ', 500.0000,1,   3,  13,   1,1.07764,  21.4783,1.10000,0.90000,1.10000,0.90000
  4231,'NORTH G3    ',  20.0000,2,   3,  13,   1,1.12784,  56.1400,1.10000,0.90000,1.10000,0.90000
  4232,'WCASCADE    ',  20.0000,2,   3,  13,   1,1.07824,  33.9306,1.10000,0.90000,1.10000,0.90000
  5001,'CANADA      ', 500.0000,1,   3,   4,   1,1.05000,  81.5383,1.10000,0.90000,1.10000,0.90000
  5002,'CANALB      ', 500.0000,1,   3,   1,   1,1.05500,  89.2442,1.10000,0.90000,1.10000,0.90000
  5003,'CA230TO     ', 230.0000,1,   3,   1,   1,1.04547,  83.2334,1.10000,0.90000,1.10000,0.90000
  5004,'CA230       ', 230.0000,1,   3,   4,   1,1.00215,  58.9271,1.10000,0.90000,1.10000,0.90000
  5031,'CANAD G1    ',  20.0000,2,   3,   4,   1,1.04585,  83.7318,1.10000,0.90000,1.10000,0.90000
  5032,'CMAIN GM    ',  20.0000,2,   3,   1,   1,1.04750,  92.4319,1.10000,0.90000,1.10000,0.90000
  6101,'MIDPOINT    ', 500.0000,1,   3,   6,   1,1.05312,  57.7336,1.10000,0.90000,1.10000,0.90000
  6102,'MIDPOINT    ', 345.0000,1,   3,   6,   1,1.03000,  62.1093,1.10000,0.90000,1.10000,0.90000
  6103,'BORAH       ', 345.0000,1,   3,   6,   1,1.02688,  62.6342,1.10000,0.90000,1.10000,0.90000
...
0 / END OF BUS DATA, BEGIN LOAD DATA
@!   I,'ID',STAT,AREA,ZONE,      PL,        QL,        IP,        IQ,        YP,        YQ, OWNER,SCALE,INTRPT,  DGENP,     DGENQ, DGENF
  1002,'1 ',   1,   1,   3,   121.161,   316.047,     0.000,     0.000,     0.000,     0.000,   1,    1,  0,     0.000,     0.000,   0
  1003,'1 ',   1,   1,  10,  1198.373,  -209.790,     0.000,     0.000,     0.000,     0.000,   1,    1,  0,     0.000,     0.000,   0
  1004,'1 ',   1,   1,  10,   545.777,    -2.818,     0.000,     0.000,     0.000,     0.000,   1,    1,  0,     0.000,     0.000,   0
  1101,'1 ',   1,   1,   3,  2427.731,    72.760,     0.000,     0.000,     0.000,     0.000,   1,    1,  0,     0.000,     0.000,   0
  1102,'1 ',   1,   1,   3,    97.419,   -12.948,     0.000,     0.000,     0.000,     0.000,   1,    1,  0,     0.000,     0.000,   0
  1201,'1 ',   1,   1,   3,    83.397,     0.927,     0.000,     0.000,     0.000,     0.000,   1,    1,  0,     0.000,     0.000,   0
  1202,'1 ',   1,   1,   3,   439.100,  -133.324,     0.000,     0.000,     0.000,     0.000,   1,    1,  0,     0.000,     0.000,   0
  1301,'1 ',   1,   1,   3,  1401.819,  -174.986,     0.000,     0.000,     0.000,     0.000,   1,    1,  0,     0.000,     0.000,   0
  1302,'1 ',   1,   1,   9,     9.255,    -1.182,     0.000,     0.000,     0.000,     0.000,   1,    1,  0,     0.000,     0.000,   0
  1303,'1 ',   1,   1,   9,  3360.131,  -436.135,     0.000,     0.000,     0.000,     0.000,   1,    1,  0,     0.000,     0.000,   0
  1401,'1 ',   1,   1,   3,  3419.931,  -770.815,     0.000,     0.000,     0.000,     0.000,   1,    1,  0,     0.000,     0.000,   0
  1402,'1 ',   1,   1,   3,  2748.173,   290.587,     0.000,     0.000,     0.000,     0.000,   1,    1,  0,     0.000,     0.000,   0
  2000,'1 ',   1,   4,   7,  1308.000,  -170.622,     0.000,     0.000,     0.000,     0.000,   1,    1,  0,     0.000,     0.000,   0
  2100,'1 ',   1,   2,   2,   351.690,   -66.267,     0.000,     0.000,     0.000,     0.000,   1,    1,  0,     0.000,     0.000,   0
  2202,'1 ',   1,   2,   2,  1486.536,  -262.438,     0.000,     0.000,     0.000,     0.000,   1,    1,  0,     0.000,     0.000,   0
  2203,'1 ',   1,   2,   2,  1608.585,  -260.688,     0.000,     0.000,     0.000,     0.000,   1,    1,  0,     0.000,     0.000,   0
  2400,'1 ',   1,   2,   2,   692.698,   -61.533,     0.000,     0.000,     0.000,     0.000,   1,    1,  0,     0.000,     0.000,   0
  2401,'1 ',   1,   2,   2,   706.664,   -80.277,     0.000,     0.000,     0.000,     0.000,   1,    1,  0,     0.000,     0.000,   0
  2402,'1 ',   1,   2,   2,   881.917,   -65.025,     0.000,     0.000,     0.000,     0.000,   1,    1,  0,     0.000,     0.000,   0
  2403,'1 ',   1,   2,   2,   863.915,   -31.037,     0.000,     0.000,     0.000,     0.000,   1,    1,  0,     0.000,     0.000,   0
  2405,'1 ',   1,   2,   2,   685.902,   -18.845,     0.000,     0.000,     0.000,     0.000,   1,    1,  0,     0.000,     0.000,   0
  2406,'1 ',   1,   2,   2,   615.740,    33.799,     0.000,     0.000,     0.000,     0.000,   1,    1,  0,     0.000,     0.000,   0
  2407,'1 ',   1,   2,   2,  1504.213,    32.752,     0.000,     0.000,     0.000,     0.000,   1,    1,  0,     0.000,     0.000,   0
  2408,'1 ',   1,   2,   2,  1452.407,    59.966,     0.000,     0.000,     0.000,     0.000,   1,    1,  0,     0.000,     0.000,   0
  2409,'1 ',   1,   2,   2,  1320.125,    70.052,     0.000,     0.000,     0.000,     0.000,   1,    1,  0,     0.000,     0.000,   0
  2410,'1 ',   1,   2,   2,  1318.372,   -48.386,     0.000,     0.000,     0.000,     0.000,   1,    1,  0,     0.000,     0.000,   0
  2411,'1 ',   1,   2,   2,   896.189,   -61.346,     0.000,     0.000,     0.000,     0.000,   1,    1,  0,     0.000,     0.000,   0
  2502,'1 ',   1,   2,   2,  1818.236,    69.065,     0.000,     0.000,     0.000,     0.000,   1,    1,  0,     0.000,     0.000,   0
  2503,'1 ',   1,   2,   2,  1433.897,  -155.505,     0.000,     0.000,     0.000,     0.000,   1,    1,  0,     0.000,     0.000,   0
  2600,'1 ',   1,   2,   2, -1394.222,     0.000,     0.000,     0.000,     0.000,     0.000,   1,    1,  0,     0.000,     0.000,   0
  2602,'1 ',   1,   2,   2,   112.254,   -14.350,     0.000,     0.000,     0.000,     0.000,   1,    1,  0,     0.000,     0.000,   0
  2604,'1 ',   1,   2,   2,  1570.077,     0.000,     0.000,     0.000,     0.000,     0.000,   1,    1,  0,     0.000,     0.000,   0
  2608,'1 ',   1,   2,   2,   112.894,   -14.514,     0.000,     0.000,     0.000,     0.000,   1,    1,  0,     0.000,     0.000,   0
  2609,'1 ',   1,   2,   2,   154.906,   -31.024,     0.000,     0.000,     0.000,     0.000,   1,    1,  0,     0.000,     0.000,   0
  2610,'1 ',   1,   2,   2,   114.130,   -14.834,     0.000,     0.000,     0.000,     0.000,   1,    1,  0,     0.000,     0.000,   0
  2611,'1 ',   1,   2,   2,   112.894,   -14.514,     0.000,     0.000,     0.000,     0.000,   1,    1,  0,     0.000,     0.000,   0
  2612,'1 ',   1,   2,   2,   136.795,   -27.884,     0.000,     0.000,     0.000,     0.000,   1,    1,  0,     0.000,     0.000,   0
  2613,'1 ',   1,   2,   2,   368.991,   -75.424,     0.000,     0.000,     0.000,     0.000,   1,    1,  0,     0.000,     0.000,   0
  2614,'1 ',   1,   2,   2,   157.935,   -32.005,     0.000,     0.000,     0.000,     0.000,   1,    1,  0,     0.000,     0.000,   0
  2615,'1 ',   1,   2,   2,   921.634,  -150.063,     0.000,     0.000,     0.000,     0.000,   1,    1,  0,     0.000,     0.000,   0
  2616,'1 ',   1,   2,   2,   134.643,   -27.738,     0.000,     0.000,     0.000,     0.000,   1,    1,  0,     0.000,     0.000,   0
  2617,'1 ',   1,   2,   2,   139.110,   -28.835,     0.000,     0.000,     0.000,     0.000,   1,    1,  0,     0.000,     0.000,   0
  2618,'1 ',   1,   2,   2,  1006.341,     6.953,     0.000,     0.000,     0.000,     0.000,   1,    1,  0,     0.000,     0.000,   0
  2619,'1 ',   1,   2,   2, -2160.729,     0.000,     0.000,     0.000,     0.000,     0.000,   1,    1,  0,     0.000,     0.000,   0
  2620,'1 ',   1,   2,   2,   233.092,   -19.819,     0.000,     0.000,     0.000,     0.000,   1,    1,  0,     0.000,     0.000,   0
  2621,'1 ',   1,   2,   2,   268.563,    70.704,     0.000,     0.000,     0.000,     0.000,   1,    1,  0,     0.000,     0.000,   0
  3101,'1 ',   1,   2,   2,   339.315,   -53.615,     0.000,     0.000,     0.000,     0.000,   1,    1,  0,     0.000,     0.000,   0
  3102,'1 ',   1,   2,   2,   157.684,   -25.029,     0.000,     0.000,     0.000,     0.000,   1,    1,  0,     0.000,     0.000,   0
  3103,'1 ',   1,   2,   2,   434.046,   -62.287,     0.000,     0.000,     0.000,     0.000,   1,    1,  0,     0.000,     0.000,   0
  3104,'1 ',   1,   2,   2,   306.780,   -40.366,     0.000,     0.000,     0.000,     0.000,   1,    1,  0,     0.000,     0.000,   0
  3105,'1 ',   1,   2,   2,   233.047,   -47.808,     0.000,     0.000,     0.000,     0.000,   1,    1,  0,     0.000,     0.000,   0
  3201,'1 ',   1,   2,   2,   475.985,  -100.936,     0.000,     0.000,     0.000,     0.000,   1,    1,  0,     0.000,     0.000,   0
  3202,'1 ',   1,   2,   2,   603.507,   -86.166,     0.000,     0.000,     0.000,     0.000,   1,    1,  0,     0.000,     0.000,   0
  3203,'1 ',   1,   2,   2,   676.072,  -163.367,     0.000,     0.000,     0.000,     0.000,   1,    1,  0,     0.000,     0.000,   0
  3204,'1 ',   1,   2,   2,   679.959,   -95.946,     0.000,     0.000,     0.000,     0.000,   1,    1,  0,     0.000,     0.000,   0
  3205,'1 ',   1,   2,   2,   561.586,   -80.114,     0.000,     0.000,     0.000,     0.000,   1,    1,  0,     0.000,     0.000,   0
  3302,'1 ',   1,   2,   2,   360.976,   -91.290,     0.000,     0.000,     0.000,     0.000,   1,    1,  0,     0.000,     0.000,   0
  3303,'1 ',   1,   2,   2,   642.217,  -154.765,     0.000,     0.000,     0.000,     0.000,   1,    1,  0,     0.000,     0.000,   0
  3304,'1 ',   1,   2,   2,   554.256,  -128.888,     0.000,     0.000,     0.000,     0.000,   1,    1,  0,     0.000,     0.000,   0
  3305,'1 ',   1,   2,   2,   444.623,   -63.652,     0.000,     0.000,     0.000,     0.000,   1,    1,  0,     0.000,     0.000,   0
  3401,'1 ',   1,   2,   2,   373.322,   -94.840,     0.000,     0.000,     0.000,     0.000,   1,    1,  0,     0.000,     0.000,   0
  3403,'1 ',   1,   2,   2,   331.309,   -47.248,     0.000,     0.000,     0.000,     0.000,   1,    1,  0,     0.000,     0.000,   0
  3404,'1 ',   1,   2,   2,   285.646,   -41.030,     0.000,     0.000,     0.000,     0.000,   1,    1,  0,     0.000,     0.000,   0
  3405,'1 ',   1,   2,   2,   301.810,   -44.860,     0.000,     0.000,     0.000,     0.000,   1,    1,  0,     0.000,     0.000,   0
  3501,'1 ',   1,   2,   2,   491.300,   -69.971,     0.000,     0.000,     0.000,     0.000,   1,    1,  0,     0.000,     0.000,   0
  3601,'1 ',   1,   2,   2,   142.660,   -19.898,     0.000,     0.000,     0.000,     0.000,   1,    1,  0,     0.000,     0.000,   0
  3701,'1 ',   1,   1,   9,   371.500,   -18.568,     0.000,     0.000,     0.000,     0.000,   1,    1,  0,     0.000,     0.000,   0
  3801,'1 ',   1,   2,   2,   152.561,   -36.058,     0.000,     0.000,     0.000,     0.000,   1,    1,  0,     0.000,     0.000,   0
  3804,'1 ',   1,   2,   2,   187.675,   -46.549,     0.000,     0.000,     0.000,     0.000,   1,    1,  0,     0.000,     0.000,   0
  3805,'1 ',   1,   2,   2,   403.808,  -127.428,     0.000,     0.000,     0.000,     0.000,   1,    1,  0,     0.000,     0.000,   0
  3806,'1 ',   1,   2,   2,   237.837,   -33.341,     0.000,     0.000,     0.000,     0.000,   1,    1,  0,     0.000,     0.000,   0
  3902,'1 ',   1,   2,   2,   128.770,   -32.193,     0.000,     0.000,     0.000,     0.000,   1,    1,  0,     0.000,     0.000,   0
  3903,'1 ',   1,   2,   2,   178.386,   -25.166,     0.000,     0.000,     0.000,     0.000,   1,    1,  0,     0.000,     0.000,   0
  3907,'1 ',   1,   2,   2,   402.494,   -57.033,     0.000,     0.000,     0.000,     0.000,   1,    1,  0,     0.000,     0.000,   0
  3908,'1 ',   1,   2,   2,   174.762,   -22.359,     0.000,     0.000,     0.000,     0.000,   1,    1,  0,     0.000,     0.000,   0
  3909,'1 ',   1,   2,   2,   149.061,   -35.935,     0.000,     0.000,     0.000,     0.000,   1,    1,  0,     0.000,     0.000,   0
  3910,'1 ',   1,   2,   2,   213.636,   -31.931,     0.000,     0.000,     0.000,     0.000,   1,    1,  0,     0.000,     0.000,   0
  3911,'1 ',   1,   2,   2,   191.126,   -37.621,     0.000,     0.000,     0.000,     0.000,   1,    1,  0,     0.000,     0.000,   0
  3912,'1 ',   1,   2,   2,   146.752,     0.533,     0.000,     0.000,     0.000,     0.000,   1,    1,  0,     0.000,     0.000,   0
  3913,'1 ',   1,   2,   2,   281.500,   -37.654,     0.000,     0.000,     0.000,     0.000,   1,    1,  0,     0.000,     0.000,   0
  3914,'1 ',   1,   2,   2,   193.817,   -45.213,     0.000,     0.000,     0.000,     0.000,   1,    1,  0,     0.000,     0.000,   0
  3915,'1 ',   1,   2,   2,   215.892,   -45.672,     0.000,     0.000,     0.000,     0.000,   1,    1,  0,     0.000,     0.000,   0
  3916,'1 ',   1,   2,   2,   130.710,     0.000,     0.000,     0.000,     0.000,     0.000,   1,    1,  0,     0.000,     0.000,   0
  3917,'1 ',   1,   2,   2,   200.282,   -36.957,     0.000,     0.000,     0.000,     0.000,   1,    1,  0,     0.000,     0.000,   0
  3918,'1 ',   1,   2,   2,   270.784,   -64.489,     0.000,     0.000,     0.000,     0.000,   1,    1,  0,     0.000,     0.000,   0
  3919,'1 ',   1,   2,   2,   160.547,   -21.673,     0.000,     0.000,     0.000,     0.000,   1,    1,  0,     0.000,     0.000,   0
  3920,'1 ',   1,   2,   2,   148.536,   -20.857,     0.000,     0.000,     0.000,     0.000,   1,    1,  0,     0.000,     0.000,   0
  3921,'1 ',   1,   2,   2,   118.694,   -25.599,     0.000,     0.000,     0.000,     0.000,   1,    1,  0,     0.000,     0.000,   0
  3922,'1 ',   1,   2,   2,   216.794,   -27.748,     0.000,     0.000,     0.000,     0.000,   1,    1,  0,     0.000,     0.000,   0
  3923,'1 ',   1,   2,   2,   330.550,   -54.633,     0.000,     0.000,     0.000,     0.000,   1,    1,  0,     0.000,     0.000,   0
  3924,'1 ',   1,   2,   2,   280.700,   -39.940,     0.000,     0.000,     0.000,     0.000,   1,    1,  0,     0.000,     0.000,   0
  3926,'1 ',   1,   2,   2,   228.391,   -14.452,     0.000,     0.000,     0.000,     0.000,   1,    1,  0,     0.000,     0.000,   0
  4002,'1 ',   1,   3,  11,   183.077,   -21.868,     0.000,     0.000,     0.000,     0.000,   1,    1,  0,     0.000,     0.000,   0
  4004,'1 ',   1,   3,  11,   294.074,   -35.219,     0.000,     0.000,     0.000,     0.000,   1,    1,  0,     0.000,     0.000,   0
  4005,'1 ',   1,   3,  11,   526.758,  -159.919,     0.000,     0.000,     0.000,     0.000,   1,    1,  0,     0.000,     0.000,   0
  4008,'1 ',   1,   3,  11,   314.133,   -38.100,     0.000,     0.000,     0.000,     0.000,   1,    1,  0,     0.000,     0.000,   0
  4009,'1 ',   1,   3,  11,  2423.326,  -438.247,     0.000,     0.000,     0.000,     0.000,   1,    1,  0,     0.000,     0.000,   0
  4010,'1 ',   1,   3,  11,  2290.057,     0.000,     0.000,     0.000,     0.000,     0.000,   1,    1,  0,     0.000,     0.000,   0
  4101,'1 ',   1,   3,  13,  1045.242,  -120.863,     0.000,     0.000,     0.000,     0.000,   1,    1,  0,     0.000,     0.000,   0
  4102,'1 ',   1,   3,  13,   519.646,   -67.733,     0.000,     0.000,     0.000,     0.000,   1,    1,  0,     0.000,     0.000,   0
  4103,'1 ',   1,   3,  13,    12.803,    -1.544,     0.000,     0.000,     0.000,     0.000,   1,    1,  0,     0.000,     0.000,   0
  4104,'1 ',   1,   3,  13,  2873.424,  -359.588,     0.000,     0.000,     0.000,     0.000,   1,    1,  0,     0.000,     0.000,   0
  4201,'1 ',   1,   3,  13,  6096.708,  -435.480,     0.000,     0.000,     0.000,     0.000,   1,    1,  0,     0.000,     0.000,   0
  4202,'1 ',   1,   3,  13,  5095.441,  -627.080,     0.000,     0.000,     0.000,     0.000,   1,    1,  0,     0.000,     0.000,   0
  4203,'1 ',   1,   3,  13,  5105.161,  -655.152,     0.000,     0.000,     0.000,     0.000,   1,    1,  0,     0.000,     0.000,   0
  4204,'1 ',   1,   3,  13,  1125.238,  -137.394,     0.000,     0.000,     0.000,     0.000,   1,    1,  0,     0.000,     0.000,   0
  5001,'1 ',   1,   3,   4,  7491.017, -1621.432,     0.000,     0.000,     0.000,     0.000,   1,    1,  0,     0.000,     0.000,   0
  5002,'1 ',   1,   3,   1,  9350.535, -1155.980,     0.000,     0.000,     0.000,     0.000,   1,    1,  0,     0.000,     0.000,   0
  5003,'1 ',   1,   3,   1,   611.943,   -76.458,     0.000,     0.000,     0.000,     0.000,   1,    1,  0,     0.000,     0.000,   0
  6102,'1 ',   1,   3,   6,   631.719,   201.079,     0.000,     0.000,     0.000,     0.000,   1,    1,  0,     0.000,     0.000,   0
  6103,'1 ',   1,   3,   6,   238.765,   -30.708,     0.000,     0.000,     0.000,     0.000,   1,    1,  0,     0.000,     0.000,   0
  6104,'1 ',   1,   3,   6,  1040.219,  -134.777,     0.000,     0.000,     0.000,     0.000,   1,    1,  0,     0.000,     0.000,   0
  6201,'1 ',   1,   3,   8,   114.878,   -14.142,     0.000,     0.000,     0.000,     0.000,   1,    1,  0,     0.000,     0.000,   0
  6202,'1 ',   1,   3,   8,    48.111,    -6.724,     0.000,     0.000,     0.000,     0.000,   1,    1,  0,     0.000,     0.000,   0
  6203,'1 ',   1,   3,   8,   360.449,   -84.974,     0.000,     0.000,     0.000,     0.000,   1,    1,  0,     0.000,     0.000,   0
  6204,'1 ',   1,   3,   8,   394.946,   -84.354,     0.000,     0.000,     0.000,     0.000,   1,    1,  0,     0.000,     0.000,   0
  6205,'1 ',   1,   3,   8,   275.692,   -46.335,     0.000,     0.000,     0.000,     0.000,   1,    1,  0,     0.000,     0.000,   0
  6301,'1 ',   1,   3,  14,   300.934,   -38.670,     0.000,     0.000,     0.000,     0.000,   1,    1,  0,     0.000,     0.000,   0
  6302,'1 ',   1,   3,  14,   348.128,   -45.162,     0.000,     0.000,     0.000,     0.000,   1,    1,  0,     0.000,     0.000,   0
  6303,'1 ',   1,   3,  14,   428.850,   -54.320,     0.000,     0.000,     0.000,     0.000,   1,    1,  0,     0.000,     0.000,   0
  6305,'1 ',   1,   3,  14,    33.618,   -10.400,     0.000,     0.000,     0.000,     0.000,   1,    1,  0,     0.000,     0.000,   0
  6401,'1 ',   1,   1,   9,  1188.291,  -150.926,     0.000,     0.000,     0.000,     0.000,   1,    1,  0,     0.000,     0.000,   0
  6402,'1 ',   1,   1,   9,   197.652,   -25.639,     0.000,     0.000,     0.000,     0.000,   1,    1,  0,     0.000,     0.000,   0
  6403,'1 ',   1,   1,   9,     1.445,    -0.161,     0.000,     0.000,     0.000,     0.000,   1,    1,  0,     0.000,     0.000,   0
  6404,'1 ',   1,   1,   9,    20.066,    -2.480,     0.000,     0.000,     0.000,     0.000,   1,    1,  0,     0.000,     0.000,   0
  6501,'1 ',   1,   3,  12,   114.205,   -36.972,     0.000,     0.000,     0.000,     0.000,   1,    1,  0,     0.000,     0.000,   0
  6502,'1 ',   1,   3,  12,   910.719,  -160.866,     0.000,     0.000,     0.000,     0.000,   1,    1,  0,     0.000,     0.000,   0
  6503,'1 ',   1,   3,  12,   245.072,   -75.428,     0.000,     0.000,     0.000,     0.000,   1,    1,  0,     0.000,     0.000,   0
  6504,'1 ',   1,   3,  12,   173.778,   -22.416,     0.000,     0.000,     0.000,     0.000,   1,    1,  0,     0.000,     0.000,   0
  6505,'1 ',   1,   3,  12,     3.878,    -1.228,     0.000,     0.000,     0.000,     0.000,   1,    1,  0,     0.000,     0.000,   0
  6507,'1 ',   1,   3,  12,   312.285,    34.583,     0.000,     0.000,     0.000,     0.000,   1,    1,  0,     0.000,     0.000,   0
  6508,'1 ',   1,   3,  12,    76.316,   -24.473,     0.000,     0.000,     0.000,     0.000,   1,    1,  0,     0.000,     0.000,   0
  6509,'1 ',   1,   3,  12,     5.026,    -1.629,     0.000,     0.000,     0.000,     0.000,   1,    1,  0,     0.000,     0.000,   0
  6510,'1 ',   1,   3,  12,  1166.656,    66.198,     0.000,     0.000,     0.000,     0.000,   1,    1,  0,     0.000,     0.000,   0
  7001,'1 ',   1,   3,   5,  4060.769,  -439.205,     0.000,     0.000,     0.000,     0.000,   1,    1,  0,     0.000,     0.000,   0
  7002,'1 ',   1,   3,   5,  1489.190,    79.290,     0.000,     0.000,     0.000,     0.000,   1,    1,  0,     0.000,     0.000,   0
  8003,'1 ',   1,   2,   2,   251.841,   -30.560,     0.000,     0.000,     0.000,     0.000,   1,    1,  0,     0.000,     0.000,   0
  8004,'1 ',   1,   2,   2,  1571.221,  -204.957,     0.000,     0.000,     0.000,     0.000,   1,    1,  0,     0.000,     0.000,   0
  8005,'1 ',   1,   2,   2,   559.161,   -74.428,     0.000,     0.000,     0.000,     0.000,   1,    1,  0,     0.000,     0.000,   0
0 / END OF LOAD DATA, BEGIN FIXED SHUNT DATA
@!   I,'ID',STATUS,  GL,        BL
0 / END OF FIXED SHUNT DATA, BEGIN GENERATOR DATA
@!   I,'ID',      PG,        QG,        QT,        QB,     VS,    IREG,     MBASE,     ZR,         ZX,         RT,         XT,     GTAP,STAT, RMPCT,      PT,        PB,    O1,    F1,  O2,    F2,  O3,    F3,  O4,    F4,WMOD, WPF,NREG
  1032,'C ',   873.000,  -190.564,   200.000,  -200.000,1.01400,  1002,   895.617, 0.00000E+0, 2.00000E-1, 0.00000E+0, 0.00000E+0,1.00000,1,  100.0,   873.000,     0.000,   1,1.0000
  1032,'G ',   259.420,   -56.628,   357.000,  -357.000,1.01400,  1002,  1109.031, 0.00000E+0, 2.00000E-1, 0.00000E+0, 0.00000E+0,1.00000,1,  100.0,  1050.000,     0.000,   1,1.0000
  1032,'S ',     0.000,   209.017,   255.200,  -255.200,1.01400,  1002,   687.147, 0.00000E+0, 2.00000E-1, 0.00000E+0, 0.00000E+0,1.00000,0,  100.0,   638.000,     0.000,   1,1.0000,   0,   1.0,   0,   1.0,   0,   1.0, 1, 1.0000
  1034,'C ',  1944.000,   248.985,   500.000,  -500.000,1.03000,  1004,  2007.271, 0.00000E+0, 2.00000E-1, 0.00000E+0, 0.00000E+0,1.00000,1,  100.0,  1944.000,     0.000,   1,1.0000
  1034,'G ',     0.000,   168.193,   918.000,  -918.000,1.03000,  1004,  2851.793, 0.00000E+0, 2.00000E-1, 0.00000E+0, 0.00000E+0,1.00000,0,  100.0,  2700.000,     0.000,   1,1.0000
  1034,'W ',   105.012,    13.450,   672.800,  -672.800,1.03000,  1004,  1811.569, 0.00000E+0, 2.00000E-1, 0.00000E+0, 0.00000E+0,1.00000,1,  100.0,  1682.000,     0.000,   1,1.0000,   0,   1.0,   0,   1.0,   0,   1.0, 1, 1.0000
  1131,'C ',  1268.000,    20.544,   308.000,  -308.000,1.01000,  1101,  1304.871, 0.00000E+0, 2.00000E-1, 0.00000E+0, 0.00000E+0,1.00000,1,  100.0,  1268.000,     0.000,   1,1.0000
  1131,'G ',  4125.405,    66.838,  1916.000, -1916.000,1.01000,  1101,  5292.958, 0.00000E+0, 2.00000E-1, 0.00000E+0, 0.00000E+0,1.00000,1,  100.0,  4934.000,     0.000,   1,1.0000
  1232,'C ',  1462.892,   166.221,  1208.000, -1208.000,1.08000,  1202,  5121.503, 0.00000E+0, 2.00000E-1, 0.00000E+0, 0.00000E+0,1.00000,1,  100.0,  4977.000,     0.000,   1,1.0000
  1232,'H ',  1476.415,   167.758,   479.600,  -479.600,1.08000,  1202,  1291.363, 0.00000E+0, 2.00000E-1, 0.00000E+0, 0.00000E+0,1.00000,1,  100.0,  1199.000,     0.000,   1,1.0000
  1331,'G ',  1942.668,   243.607,   841.000,  -841.000,1.04500,  1301,  2324.472, 0.00000E+0, 2.00000E-1, 0.00000E+0, 0.00000E+0,1.00000,1,  100.0,  2167.000,     0.000,   1,1.0000
  1331,'H ',  2328.000,   291.926,   931.200,  -931.200,1.04500,  1301,  2507.333, 0.00000E+0, 2.00000E-1, 0.00000E+0, 0.00000E+0,1.00000,1,  100.0,  2328.000,     0.000,   1,1.0000
  1333,'C ',   418.000,   -80.761,   167.200,  -167.200,1.00500,  1303,   450.200, 0.00000E+0, 2.00000E-1, 0.00000E+0, 0.00000E+0,1.00000,1,  100.0,   418.000,     0.000,   1,1.0000
  1333,'G ',  3009.334,  -581.429,  2746.000, -2746.000,1.00500,  1303,  7529.584, 0.00000E+0, 2.00000E-1, 0.00000E+0, 0.00000E+0,1.00000,1,  100.0,  7011.000,     0.000,   1,1.0000
  1333,'S ',     0.000,   205.553,   969.200,  -969.200,1.00500,  1303,  2609.651, 0.00000E+0, 2.00000E-1, 0.00000E+0, 0.00000E+0,1.00000,0,  100.0,  2423.000,     0.000,   1,1.0000,   0,   1.0,   0,   1.0,   0,   1.0, 1, 1.0000
  1431,'G ',     0.000,   797.425,  3559.000, -3559.000,1.03500,  1401,  9836.432, 0.00000E+0, 2.00000E-1, 0.00000E+0, 0.00000E+0,1.00000,0,  100.0,  9170.000,     0.000,   1,1.0000
  1431,'N ',  3066.000,  1347.874,  1684.000, -1684.000,1.03500,  1401,  4534.309, 0.00000E+0, 2.00000E-1, 0.00000E+0, 0.00000E+0,1.00000,1,  100.0,  4210.000,     0.000,   1,1.0000
  1431,'S ',     0.000,   210.356,   967.600,  -967.600,1.03500,  1401,  2605.343, 0.00000E+0, 2.00000E-1, 0.00000E+0, 0.00000E+0,1.00000,0,  100.0,  2419.000,     0.000,   1,1.0000,   0,   1.0,   0,   1.0,   0,   1.0, 1, 1.0000
  2030,'E ',   520.000,   113.961,   279.600,  -279.600,1.00000,  2000,   752.846, 0.00000E+0, 2.00000E-1, 0.00000E+0, 0.00000E+0,1.00000,1,  100.0,   699.000,     0.000,   1,1.0000
  2030,'G ',  1784.438,   391.069,   856.000,  -856.000,1.00000,  2000,  2304.851, 0.00000E+0, 2.00000E-1, 0.00000E+0, 0.00000E+0,1.00000,1,  100.0,  2140.000,     0.000,   1,1.0000
  2130,'E ',   407.000,   254.000,   254.000,  -254.000,1.03500,  2100,   868.952, 0.00000E+0, 2.00000E-1, 0.00000E+0, 0.00000E+0,1.00000,1,  100.0,   831.000,     0.000,   1,1.0000
  2130,'G ',   139.175,   200.000,   200.000,  -200.000,1.03500,  2100,   619.190, 0.00000E+0, 2.00000E-1, 0.00000E+0, 0.00000E+0,1.00000,1,  100.0,   586.000,     0.000,   1,1.0000
  2130,'H ',   284.320,   158.400,   158.400,  -158.400,1.03500,  2100,   426.505, 0.00000E+0, 2.00000E-1, 0.00000E+0, 0.00000E+0,1.00000,1,  100.0,   396.000,     0.000,   1,1.0000
  2130,'S ',     0.000,    10.677,    46.000,   -46.000,1.03500,  2100,   123.859, 0.00000E+0, 2.00000E-1, 0.00000E+0, 0.00000E+0,1.00000,0,  100.0,   115.000,     0.000,   1,1.0000,   0,   1.0,   0,   1.0,   0,   1.0, 1, 1.0000
  2233,'DG',     0.000,   136.789,   304.000,  -304.000,1.00500,  2203,  1078.722, 0.00000E+0, 2.00000E-1, 0.00000E+0, 0.00000E+0,1.00000,0,  100.0,  1035.000,     0.000,   1,1.0000
  2233,'EG',     0.000,   242.861,   611.000,  -611.000,1.00500,  2203,  1935.947, 0.00000E+0, 2.00000E-1, 0.00000E+0, 0.00000E+0,1.00000,0,  100.0,  1837.000,     0.000,   1,1.0000
  2233,'TG',     0.000,    96.952,   206.000,  -206.000,1.00500,  2203,   761.397, 0.00000E+0, 2.00000E-1, 0.00000E+0, 0.00000E+0,1.00000,0,  100.0,   733.000,     0.000,   1,1.0000
  2332,'S ',     0.000,   128.939,   533.200,  -533.200,1.03500,  2302,  1435.685, 0.00000E+0, 2.00000E-1, 0.00000E+0, 0.00000E+0,1.00000,0,  100.0,  1333.000,     0.000,   1,1.0000,   0,   1.0,   0,   1.0,   0,   1.0, 1, 1.0000
  2404,'AD',     0.000,   940.907, 99999.000,-99999.000,1.00000,  2404,   100.000, 0.00000E+0, 1.00000E+0, 0.00000E+0, 0.00000E+0,1.00000,1,  100.0, 99999.000,-99999.000,   1,1.0000
  2431,'S ',     0.000,   367.573,   666.400,  -666.400,1.05000,  2431,  1794.337, 0.00000E+0, 2.00000E-1, 0.00000E+0, 0.00000E+0,1.00000,0,  100.0,  1666.000,     0.000,   1,1.0000,   0,   1.0,   0,   1.0,   0,   1.0, 1, 1.0000
  2434,'S ',     0.000,  -213.713,   500.000,  -500.000,1.02000,  2434,  1570.707, 0.00000E+0, 2.00000E-1, 0.00000E+0, 0.00000E+0,1.00000,0,  100.0,  1489.000,     0.000,   1,1.0000,   0,   1.0,   0,   1.0,   0,   1.0, 1, 1.0000
  2438,'EG',   378.876,   194.710,   728.000,  -728.000,1.00900,  2408,  2404.838, 0.00000E+0, 2.00000E-1, 0.00000E+0, 0.00000E+0,1.00000,1,  100.0,  2292.000,     0.000,   1,1.0000
  2438,'ND',     0.000,     0.000,     0.500,    -0.500,1.00900,  2408,     0.500, 0.00000E+0, 2.00000E-1, 0.00000E+0, 0.00000E+0,1.00000,0,  100.0,     0.000, -1006.000,   1,1.0000
  2438,'RG',     0.000,     0.000,  1902.000, -1902.000,1.00900,  2408,  5773.301, 0.00000E+0, 2.00000E-1, 0.00000E+0, 0.00000E+0,1.00000,1,  100.0,  5451.000,     0.000,   1,1.0000
  2438,'S ',     0.000,    14.702,   458.400,  -458.400,1.00900,  2408,  1234.280, 0.00000E+0, 2.00000E-1, 0.00000E+0, 0.00000E+0,1.00000,0,  100.0,  1146.000,     0.000,   1,1.0000,   0,   1.0,   0,   1.0,   0,   1.0, 1, 1.0000
  2438,'SG',   793.261,   407.668,  1644.000, -1644.000,1.00900,  2408,  4426.605, 0.00000E+0, 2.00000E-1, 0.00000E+0, 0.00000E+0,1.00000,1,  100.0,  4110.000,     0.000,   1,1.0000
  2438,'SH',  1005.895,   516.943,   584.000,  -584.000,1.00900,  2408,  1572.468, 0.00000E+0, 2.00000E-1, 0.00000E+0, 0.00000E+0,1.00000,1,  100.0,  1460.000,     0.000,   1,1.0000
  2438,'SW',   314.293,   161.519,   561.000,  -561.000,1.00900,  2408,  3258.653, 0.00000E+0, 2.00000E-1, 0.00000E+0, 0.00000E+0,1.00000,1,  100.0,  3210.000,     0.000,   1,1.0000,   0,   1.0,   0,   1.0,   0,   1.0, 1, 1.0000
  2438,'WG',     0.000,    74.740,  1910.000, -1910.000,1.00900,  2408,  6122.547, 0.00000E+0, 2.00000E-1, 0.00000E+0, 0.00000E+0,1.00000,0,  100.0,  5817.000,     0.000,   1,1.0000
  2439,'S ',     0.000,  -206.012,   666.400,  -666.400,1.02000,  2409,  1794.337, 0.00000E+0, 2.00000E-1, 0.00000E+0, 0.00000E+0,1.00000,0,  100.0,  1666.000,     0.000,   1,1.0000,   0,   1.0,   0,   1.0,   0,   1.0, 1, 1.0000
  2533,'S ',     0.000,   224.930,   799.600,  -799.600,1.00900,  2503,  2152.989, 0.00000E+0, 2.00000E-1, 0.00000E+0, 0.00000E+0,1.00000,0,  100.0,  1999.000,     0.000,   1,1.0000,   0,   1.0,   0,   1.0,   0,   1.0, 1, 1.0000
  2630,'G ',  2208.091,   188.266,  1346.000, -1346.000,1.00400,  2610,  4170.195, 0.00000E+0, 2.00000E-1, 0.00000E+0, 0.00000E+0,1.00000,1,  100.0,  3947.000,     0.000,   1,1.0000
  2631,'S ',     0.000,    72.187,   208.000,  -208.000,1.01500,  2611,   560.057, 0.00000E+0, 2.00000E-1, 0.00000E+0, 0.00000E+0,1.00000,0,  100.0,   520.000,     0.000,   1,1.0000,   0,   1.0,   0,   1.0,   0,   1.0, 1, 1.0000
  2634,'C ',  1618.000,  -196.153,   647.200,  -647.200,1.03000,  2604,  1742.639, 0.00000E+0, 2.00000E-1, 0.00000E+0, 0.00000E+0,1.00000,1,  100.0,  1618.000,     0.000,   1,1.0000
  2637,'H ',    87.000,    34.800,    34.800,   -34.800,1.03000,  2612,    93.702, 0.00000E+0, 2.00000E-1, 0.00000E+0, 0.00000E+0,1.00000,1,  100.0,    87.000,     0.000,   1,1.0000
  2638,'H ',   407.000,   100.000,   100.000,  -100.000,1.01500,  2608,   419.105, 0.00000E+0, 2.00000E-1, 0.00000E+0, 0.00000E+0,1.00000,1,  100.0,   407.000,     0.000,   1,1.0000
  3133,'NG',     0.000,    24.800,    24.800,   -24.800,1.00000,  3103,    66.776, 0.00000E+0, 2.00000E-1, 0.00000E+0, 0.00000E+0,1.00000,0,  100.0,    62.000,     0.000,   1,1.0000
  3133,'SC',     0.000,     0.000,   500.000,  -500.000,1.00000,  3103,   500.000, 0.00000E+0, 2.00000E-1, 0.00000E+0, 0.00000E+0,1.00000,0,  100.0,     0.100,     0.000,   1,1.0000
  3135,'MG',   300.623,   -91.251,   216.400,  -216.400,1.00000,  3105,   582.675, 0.00000E+0, 2.00000E-1, 0.00000E+0, 0.00000E+0,1.00000,1,  100.0,   541.000,     0.000,   1,1.0000
  3135,'NG',     0.000,     6.381,    15.200,   -15.200,1.00000,  3105,    40.927, 0.00000E+0, 2.00000E-1, 0.00000E+0, 0.00000E+0,1.00000,0,  100.0,    38.000,     0.000,   1,1.0000
  3234,'DG',     0.000,    15.032,    70.800,   -70.800,1.01000,  3204,   190.635, 0.00000E+0, 2.00000E-1, 0.00000E+0, 0.00000E+0,1.00000,0,  100.0,   177.000,     0.000,   1,1.0000
  3234,'MG',  1304.618,  -142.862,  1244.000, -1244.000,1.01000,  3204,  4048.845, 0.00000E+0, 2.00000E-1, 0.00000E+0, 0.00000E+0,1.00000,1,  100.0,  3853.000,     0.000,   1,1.0000
  3234,'NG',   381.358,   -41.761,   382.000,  -382.000,1.01000,  3204,  1105.121, 0.00000E+0, 2.00000E-1, 0.00000E+0, 0.00000E+0,1.00000,1,  100.0,  1037.000,     0.000,   1,1.0000
  3234,'NW',   402.378,   -44.062,   150.000,  -150.000,1.01000,  3204,  1746.453, 0.00000E+0, 2.00000E-1, 0.00000E+0, 0.00000E+0,1.00000,1,  100.0,  1740.000,     0.000,   1,1.0000,   0,   1.0,   0,   1.0,   0,   1.0, 1, 1.0000
  3333,'CG',   814.000,  -364.303,   398.000,  -398.000,1.00000,  3303,  1087.450, 0.00000E+0, 2.00000E-1, 0.00000E+0, 0.00000E+0,1.00000,1,  100.0,  1012.000,     0.000,   1,1.0000
  3333,'NG',    63.946,   -28.619,   124.800,  -124.800,1.00000,  3303,   336.034, 0.00000E+0, 2.00000E-1, 0.00000E+0, 0.00000E+0,1.00000,1,  100.0,   312.000,     0.000,   1,1.0000
  3432,'NP',     3.534,   -41.611,  1498.400, -1498.400,1.00000,  3402,  4034.565, 0.00000E+0, 2.00000E-1, 0.00000E+0, 0.00000E+0,1.00000,1,  100.0,  3746.000, -2841.000,   1,1.0000
  3433,'NG',     0.000,    33.395,   231.000,  -231.000,1.00000,  3403,   949.527, 0.00000E+0, 2.00000E-1, 0.00000E+0, 0.00000E+0,1.00000,0,  100.0,   921.000,     0.000,   1,1.0000
  3433,'S ',     0.000,    51.724,   570.400,  -570.400,1.00000,  3403,  1535.849, 0.00000E+0, 2.00000E-1, 0.00000E+0, 0.00000E+0,1.00000,0,  100.0,  1426.000,     0.000,   1,1.0000,   0,   1.0,   0,   1.0,   0,   1.0, 1, 1.0000
  3531,'CE',  1424.000,   -35.137,   569.600,  -569.600,1.00000,  3501,  1533.695, 0.00000E+0, 2.00000E-1, 0.00000E+0, 0.00000E+0,1.00000,1,  100.0,  1424.000,     0.000,   1,1.0000
  3531,'NE',   533.000,   -13.152,   213.200,  -213.200,1.00000,  3501,   574.059, 0.00000E+0, 2.00000E-1, 0.00000E+0, 0.00000E+0,1.00000,1,  100.0,   533.000,     0.000,   1,1.0000
  3531,'NH',    11.697,    -0.289,     9.600,    -9.600,1.00000,  3501,    25.849, 0.00000E+0, 2.00000E-1, 0.00000E+0, 0.00000E+0,1.00000,1,  100.0,    24.000,     0.000,   1,1.0000
  3631,'NB',    79.336,   -20.000,    20.000,   -20.000,1.01500,  3601,    98.061, 0.00000E+0, 2.00000E-1, 0.00000E+0, 0.00000E+0,1.00000,1,  100.0,    96.000,     0.000,   1,1.0000
  3631,'NG',     0.000,   -11.445,    74.000,   -74.000,1.01500,  3601,   222.657, 0.00000E+0, 2.00000E-1, 0.00000E+0, 0.00000E+0,1.00000,0,  100.0,   210.000,     0.000,   1,1.0000
  3731,'NH',   243.000,   -97.200,    97.200,   -97.200,1.00000,  3701,   261.719, 0.00000E+0, 2.00000E-1, 0.00000E+0, 0.00000E+0,1.00000,1,  100.0,   243.000,     0.000,   1,1.0000
  3831,'NN',  2323.000,   353.530,   929.200,  -929.200,1.04900,  3801,  2501.948, 0.00000E+0, 2.00000E-1, 0.00000E+0, 0.00000E+0,1.00000,1,  100.0,  2323.000,     0.000,   1,1.0000
  3835,'ND',     0.000,     0.000,     0.500,    -0.500,1.03500,  3805,     0.500, 0.00000E+0, 2.00000E-1, 0.00000E+0, 0.00000E+0,1.00000,0,  100.0,     0.000,  -510.000,   1,1.0000
  3835,'NG',     0.000,    82.527,   662.000,  -662.000,1.03500,  3805,  2130.462, 0.00000E+0, 2.00000E-1, 0.00000E+0, 0.00000E+0,1.00000,0,  100.0,  2025.000,     0.000,   1,1.0000
  3835,'S ',     0.000,    54.057,   500.000,  -500.000,1.03500,  3805,  1423.688, 0.00000E+0, 2.00000E-1, 0.00000E+0, 0.00000E+0,1.00000,0,  100.0,  1333.000,     0.000,   1,1.0000,   0,   1.0,   0,   1.0,   0,   1.0, 1, 1.0000
  3836,'DG',     0.000,    16.516,   476.000,  -476.000,1.01900,  3806,  1570.855, 0.00000E+0, 2.00000E-1, 0.00000E+0, 0.00000E+0,1.00000,0,  100.0,  1497.000,     0.000,   1,1.0000
  3931,'NB',     0.000,    42.630,   151.000,  -151.000,1.07000,  3921,   586.762, 0.00000E+0, 2.00000E-1, 0.00000E+0, 0.00000E+0,1.00000,0,  100.0,   567.000,     0.000,   1,1.0000
  3931,'NH',  1768.892,   126.423,  1150.000, -1150.000,1.07000,  3921,  3096.470, 0.00000E+0, 2.00000E-1, 0.00000E+0, 0.00000E+0,1.00000,1,  100.0,  2875.000,     0.000,   1,1.0000
  3932,'S ',     0.000,   -47.754,   570.400,  -570.400,1.00000,  3902,  1535.849, 0.00000E+0, 2.00000E-1, 0.00000E+0, 0.00000E+0,1.00000,0,  100.0,  1426.000,     0.000,   1,1.0000,   0,   1.0,   0,   1.0,   0,   1.0, 1, 1.0000
  3933,'CG',   791.695,    41.693,   346.000,  -346.000,1.02000,  3933,   931.633, 0.00000E+0, 2.00000E-1, 0.00000E+0, 0.00000E+0,1.00000,1,  100.0,   865.000,     0.000,   1,1.0000
  3933,'NB',   285.393,    15.030,    77.000,   -77.000,1.02000,  3933,   353.488, 0.00000E+0, 2.00000E-1, 0.00000E+0, 0.00000E+0,1.00000,1,  100.0,   345.000,     0.000,   1,1.0000
  3933,'ND',     0.000,     0.000,     0.500,    -0.500,1.02000,  3933,     0.500, 0.00000E+0, 2.00000E-1, 0.00000E+0, 0.00000E+0,1.00000,0,  100.0,     0.000,  -449.000,   1,1.0000
  3933,'NG',   438.488,    23.092,   500.000,  -500.000,1.02000,  3933,  1990.811, 0.00000E+0, 2.00000E-1, 0.00000E+0, 0.00000E+0,1.00000,1,  100.0,  1927.000,     0.000,   1,1.0000
  3933,'NH',  1680.096,    88.479,  1089.600, -1089.600,1.02000,  3933,  2933.838, 0.00000E+0, 2.00000E-1, 0.00000E+0, 0.00000E+0,1.00000,1,  100.0,  2724.000,     0.000,   1,1.0000
  3933,'NW',    82.137,     4.326,   200.000,  -200.000,1.02000,  3933,   766.551, 0.00000E+0, 2.00000E-1, 0.00000E+0, 0.00000E+0,1.00000,1,  100.0,   740.000,     0.000,   1,1.0000,   0,   1.0,   0,   1.0,   0,   1.0, 1, 1.0000
  3933,'S ',     0.000,   132.443,   533.200,  -533.200,1.02000,  3933,  1435.685, 0.00000E+0, 2.00000E-1, 0.00000E+0, 0.00000E+0,1.00000,0,  100.0,  1333.000,     0.000,   1,1.0000,   0,   1.0,   0,   1.0,   0,   1.0, 1, 1.0000
  4031,'G ',     0.000,   502.000,   502.000,  -502.000,1.08000,  4001,  2756.103, 0.00000E+0, 2.00000E-1, 0.00000E+0, 0.00000E+0,1.00000,0,  100.0,  2710.000,     0.000,   1,1.0000
  4031,'H ',   952.000,    19.105,   380.800,  -380.800,1.08000,  4001,  1025.335, 0.00000E+0, 2.00000E-1, 0.00000E+0, 0.00000E+0,1.00000,1,  100.0,   952.000,     0.000,   1,1.0000
  4031,'S ',     0.000,   109.387,   170.800,  -170.800,1.08000,  4001,   459.893, 0.00000E+0, 2.00000E-1, 0.00000E+0, 0.00000E+0,1.00000,0,  100.0,   427.000,     0.000,   1,1.0000,   0,   1.0,   0,   1.0,   0,   1.0, 1, 1.0000
  4031,'W ',   490.008,     9.834,   240.000,  -240.000,1.08000,  4001,   678.841, 0.00000E+0, 2.00000E-1, 0.00000E+0, 0.00000E+0,1.00000,1,  100.0,   635.000,     0.000,   1,1.0000,   0,   1.0,   0,   1.0,   0,   1.0, 1, 1.0000
  4035,'C ',   128.400,   -27.269,   255.000,  -255.000,1.08000,  4005,   690.789, 0.00000E+0, 2.00000E-1, 0.00000E+0, 0.00000E+0,1.00000,1,  100.0,   642.000,     0.000,   1,1.0000
  4035,'G ',     0.000,    19.364,   307.000,  -307.000,1.08000,  4005,  1684.216, 0.00000E+0, 2.00000E-1, 0.00000E+0, 0.00000E+0,1.00000,0,  100.0,  1656.000,     0.000,   1,1.0000
  4035,'H ',  2514.187,  -533.945,  1428.800, -1428.800,1.08000,  4005,  3847.162, 0.00000E+0, 2.00000E-1, 0.00000E+0, 0.00000E+0,1.00000,1,  100.0,  3572.000,     0.000,   1,1.0000
  4035,'W ',   117.398,   -24.932,   800.000,  -800.000,1.08000,  4005,  2699.275, 0.00000E+0, 2.00000E-1, 0.00000E+0, 0.00000E+0,1.00000,1,  100.0,  2578.000,     0.000,   1,1.0000,   0,   1.0,   0,   1.0,   0,   1.0, 1, 1.0000
  4039,'G ',     0.000,    31.097,    60.000,   -60.000,1.08000,  4009,   161.555, 0.00000E+0, 2.00000E-1, 0.00000E+0, 0.00000E+0,1.00000,0,  100.0,   150.000,     0.000,   1,1.0000
  4039,'H ',  2000.000,  -316.220,  1135.600, -1135.600,1.08000,  4009,  3057.697, 0.00000E+0, 2.00000E-1, 0.00000E+0, 0.00000E+0,1.00000,1,  100.0,  2839.000,     0.000,   1,1.0000
  4039,'W ',     0.000,   286.380,   500.000,  -500.000,1.08000,  4009,  1383.510, 0.00000E+0, 2.00000E-1, 0.00000E+0, 0.00000E+0,1.00000,0,  100.0,  1290.000,     0.000,   1,1.0000,   0,   1.0,   0,   1.0,   0,   1.0, 1, 1.0000
  4131,'B ',   588.157,    75.003,   150.000,  -150.000,1.12800,  4101,   726.651, 0.00000E+0, 2.00000E-1, 0.00000E+0, 0.00000E+0,1.00000,1,  100.0,   711.000,     0.000,   1,1.0000
  4131,'H ', 12422.247,  1584.109,  5045.200, -5045.200,1.12800,  4101, 13584.617, 0.00000E+0, 2.00000E-1, 0.00000E+0, 0.00000E+0,1.00000,1,  100.0, 12613.000,     0.000,   1,1.0000
  4131,'W ',     0.000,    71.928,   120.000,  -120.000,1.12800,  4101,   799.062, 0.00000E+0, 2.00000E-1, 0.00000E+0, 0.00000E+0,1.00000,0,  100.0,   790.000,     0.000,   1,1.0000,   0,   1.0,   0,   1.0,   0,   1.0, 1, 1.0000
  4132,'G ',     0.000,   311.261,   868.000,  -868.000,1.09600,  4102,  2337.162, 0.00000E+0, 2.00000E-1, 0.00000E+0, 0.00000E+0,1.00000,0,  100.0,  2170.000,     0.000,   1,1.0000
  4132,'H ',  1671.021,   596.854,  2215.600, -2215.600,1.09600,  4102,  5965.686, 0.00000E+0, 2.00000E-1, 0.00000E+0, 0.00000E+0,1.00000,1,  100.0,  5539.000,     0.000,   1,1.0000
  4132,'N ',  1200.000,   231.000,   231.000,  -231.000,1.09600,  4102,  1222.031, 0.00000E+0, 2.00000E-1, 0.00000E+0, 0.00000E+0,1.00000,1,  100.0,  1200.000,     0.000,   1,1.0000
  4132,'W ',   208.195,    74.363,   120.000,  -120.000,1.09600,  4102,   323.110, 0.00000E+0, 2.00000E-1, 0.00000E+0, 0.00000E+0,1.00000,1,  100.0,   300.000,     0.000,   1,1.0000,   0,   1.0,   0,   1.0,   0,   1.0, 1, 1.0000
  4231,'C ',   756.899,   485.558,   584.000,  -584.000,1.12000,  4201,  1572.468, 0.00000E+0, 2.00000E-1, 0.00000E+0, 0.00000E+0,1.00000,1,  100.0,  1460.000,     0.000,   1,1.0000
  4231,'G ',     0.000,   267.538,   388.000,  -388.000,1.12000,  4201,  1044.722, 0.00000E+0, 2.00000E-1, 0.00000E+0, 0.00000E+0,1.00000,0,  100.0,   970.000,     0.000,   1,1.0000
...